Circuit: * C:\Users\Eric\Documents\GitHub\SolarSimulation\LTSpice_Sim\LT3652_TA04.asc

Direct Newton iteration failed to find .op point.  (Use ".option noopiter" to skip.)
Starting Gmin stepping
Gmin = 10
Gmin = 1.07374
Gmin = 0.115292
Gmin = 0.0123794
Gmin = 0.00132923
Gmin = 0.000142725
Gmin = 1.5325e-005
Gmin = 1.6455e-006
Gmin = 1.76685e-007
Gmin = 1.89714e-008
Gmin = 2.03704e-009
Gmin = 2.18725e-010
Gmin = 2.34854e-011
Gmin = 2.52173e-012
Gmin = 2.70769e-013
Gmin = 0
Gmin stepping succeeded in finding the operating point.

Heightened Def Con from 7.26514e-005 to 7.26518e-005

Date: Fri Dec 28 18:27:02 2018
Total elapsed time: 24.000 seconds.

tnom = 27
temp = 27
method = modified trap
totiter = 2716613
traniter = 2716205
tranpoints = 897018
accept = 668382
rejected = 228637
matrix size = 75
fillins = 17
solver = Normal
Thread vector: 5.5/4.2[3] 3.2/2.0[3] 0.7/2.1[1] 0.2/0.7[1]  2592/500
Matrix Compiler1: 2.76 KB object code size  0.7/0.4/[0.3]
Matrix Compiler2: 4.46 KB object code size  0.4/0.7/[0.4]

