Circuit: * C:\Users\Eric\Documents\GitHub\SolarSimulation\LTSpice_Sim\LT3652_TA04_const voltage source.asc

Direct Newton iteration failed to find .op point.  (Use ".option noopiter" to skip.)
Starting Gmin stepping
Gmin = 10
Gmin = 1.07374
Gmin = 0.115292
Gmin = 0.0123794
Gmin = 0.00132923
Gmin = 0.000142725
Gmin = 1.5325e-005
Gmin = 1.6455e-006
vernier = 0.5
vernier = 0.25
vernier = 0.125
vernier = 0.0625
Gmin = 5.39199e-007
vernier = 0.03125
vernier = 0.015625
vernier = 0.0078125
vernier = 0.00390625
vernier = 0.00195313
vernier = 0.000976563
vernier = 0.000488281
Gmin = 0
Gmin stepping succeeded in finding the operating point.


Date: Sat Jan 19 11:24:49 2019
Total elapsed time: 3.018 seconds.

tnom = 27
temp = 27
method = modified trap
totiter = 331342
traniter = 329713
tranpoints = 111695
accept = 83787
rejected = 27908
matrix size = 71
fillins = 22
solver = Normal
Thread vector: 6.7/4.1[3] 3.1/2.0[3] 0.7/1.9[1] 0.2/0.7[1]  2592/500
Matrix Compiler1: 2.57 KB object code size  0.7/0.4/[0.3]
Matrix Compiler2: off  [0.4]/1.0/0.6

