Circuit: * C:\Users\Eric\Documents\GitHub\SolarSimulation\LTSpice_Sim\LT3652_TA04_labtest.asc

Direct Newton iteration failed to find .op point.  (Use ".option noopiter" to skip.)
Starting Gmin stepping
Gmin = 10
Gmin = 1.07374
Gmin = 0.115292
Gmin = 0.0123794
Gmin = 0.00132923
Gmin = 0.000142725
Gmin = 1.5325e-005
Gmin = 1.6455e-006
vernier = 0.5
vernier = 0.25
vernier = 0.125
vernier = 0.0625
Gmin = 5.39199e-007
vernier = 0.03125
vernier = 0.015625
vernier = 0.0078125
vernier = 0.00390625
vernier = 0.00195313
vernier = 0.000976563
vernier = 0.000488281
Gmin = 0
Gmin stepping succeeded in finding the operating point.


Date: Sat Jan 19 17:11:55 2019
Total elapsed time: 46.703 seconds.

tnom = 27
temp = 27
method = modified trap
totiter = 4712787
traniter = 4711157
tranpoints = 1603257
accept = 1238249
rejected = 365008
matrix size = 71
fillins = 22
solver = Normal
Thread vector: 6.4/4.9[3] 3.4/2.0[3] 0.7/1.9[1] 0.2/0.7[1]  2592/500
Matrix Compiler1:     159 opcodes  0.8/[0.4]/0.7
Matrix Compiler2: off  [0.4]/1.1/0.5

