Circuit: * C:\Users\Eric\Documents\GitHub\SolarSimulation\LTSpice_Sim\LT3652_TA04.asc

Direct Newton iteration failed to find .op point.  (Use ".option noopiter" to skip.)
Starting Gmin stepping
Gmin = 10
Gmin = 1.07374
Gmin = 0.115292
Gmin = 0.0123794
Gmin = 0.00132923
Gmin = 0.000142725
Gmin = 1.5325e-005
Gmin = 1.6455e-006
Gmin = 1.76685e-007
Gmin = 1.89714e-008
Gmin = 2.03704e-009
Gmin = 2.18725e-010
Gmin = 2.34854e-011
Gmin = 2.52173e-012
Gmin = 2.70769e-013
Gmin = 0
Gmin stepping succeeded in finding the operating point.

Heightened Def Con from 7.26514e-005 to 7.26518e-005

Date: Sat Jan 12 14:43:21 2019
Total elapsed time: 23.639 seconds.

tnom = 27
temp = 27
method = modified trap
totiter = 2712407
traniter = 2711999
tranpoints = 896020
accept = 667769
rejected = 228252
matrix size = 74
fillins = 17
solver = Normal
Thread vector: 5.9/3.6[3] 3.1/2.2[3] 0.6/2.4[1] 0.2/0.7[1]  2592/500
Matrix Compiler1: 2.71 KB object code size  0.7/0.4/[0.3]
Matrix Compiler2: 4.37 KB object code size  0.5/0.7/[0.4]

