Circuit: * C:\Users\Eric\Documents\GitHub\SolarSimulation\LTSpice_Sim\SparkFun_Sunny_Buddy.asc

C1: both pins shorted together -- ignoring.
V1: both pins shorted together -- ignoring.
Unknown node in .ic card: "in" -- ignoring
Direct Newton iteration for .op point succeeded.

Date: Sat Jan 19 10:04:57 2019
Total elapsed time: 0.094 seconds.

tnom = 27
temp = 27
method = modified trap
totiter = 2287
traniter = 2254
tranpoints = 1107
accept = 1097
rejected = 10
matrix size = 64
fillins = 8
solver = Normal
Thread vector: 4.6/3.8[3] 3.2/2.3[3] 0.8/1.2[1] 0.1/0.6[1]  2592/500
Matrix Compiler1: 1.88 KB object code size  0.5/0.3/[0.3]
Matrix Compiler2: off  [0.2]/0.6/0.3

